*Heading
** Job name: 00057Mpa Model name: vitreous-yangs
** Generated by: Abaqus/CAE 2025
*Preprint, echo=NO, model=NO, history=NO, contact=NO
**
** PARTS
**
*Part, name=back-sclera
*End Part
**  
*Part, name=cornea
*End Part
**  
*Part, name=crystalline
*End Part
**  
*Part, name=front-sclera
*End Part
**  
*Part, name=touch-len
*End Part
**  
*Part, name=vitreous
*End Part
**  
**
** ASSEMBLY
**
*Assembly, name=Assembly
**  
*Instance, name=back-sclera-1, part=back-sclera
6.69970745548198e-11, 0.574192770153406,           0.
*Node
      1,   10.4872065,   -1.9078151
      2,   10.4707088,  -2.49583745
      3,   10.4212656,  -3.08200979
      4,   10.3390331,   -3.6644876
      5,   10.2242708,  -4.24143839
      6,   10.0773392,   -4.8110466
      7,   9.89869976,  -5.37152004
      8,   9.68891621,  -5.92109537
      9,   9.44864655,  -6.45804358
     10,   9.17864895,  -6.98067522
     11,   8.87977219,   -7.4873457
     12,   8.55295563,  -7.97646093
     13,   8.19922829,   -8.4464817
     14,   7.81970358,  -8.89592934
     15,   7.41557503,  -9.32339001
     16,   6.98811436,  -9.72751904
     17,   6.53866673,  -10.1070433
     18,   6.06864548,  -10.4607706
     19,   5.57953072,  -10.7875872
     20,   5.07286024,  -11.0864639
** ... 38 like lines cut
*Element, type=CAX4R
 1,  1,  2, 31, 30
 2,  2,  3, 32, 31
 3,  3,  4, 33, 32
 4,  4,  5, 34, 33
 5,  5,  6, 35, 34
 6,  6,  7, 36, 35
 7,  7,  8, 37, 36
 8,  8,  9, 38, 37
 9,  9, 10, 39, 38
10, 10, 11, 40, 39
11, 11, 12, 41, 40
12, 12, 13, 42, 41
13, 13, 14, 43, 42
14, 14, 15, 44, 43
15, 15, 16, 45, 44
16, 16, 17, 46, 45
17, 17, 18, 47, 46
18, 18, 19, 48, 47
19, 19, 20, 49, 48
20, 20, 21, 50, 49
** ... 8 like lines cut
*Nset, nset=_PickedSet2, internal, generate
  1,  58,   1
*Elset, elset=_PickedSet2, internal, generate
  1,  28,   1
** Section: back-sclera
*Solid Section, elset=_PickedSet2, material=back-sclera
,
*End Instance
**  
*Instance, name=cornea-1, part=cornea
*Node
      1,   6.55041647,   8.58437443
      2,   6.82423782,     6.629498
      3,   7.15500021,   7.80576134
      4,           0.,   11.5640192
      5,           0.,     10.68402
      6,   6.57147932,   8.43399906
      7,   6.59254265,    8.2836237
      8,   6.61360598,   8.13324833
      9,    6.6346693,   7.98287344
     10,   6.65573215,   7.83249855
     11,   6.67679548,   7.68212366
     12,   6.69785881,   7.53174829
     13,   6.71892214,   7.38137341
     14,   6.73998499,   7.23099804
     15,   6.76104832,   7.08062315
     16,   6.78211164,   6.93024826
     17,   6.80317497,   6.77987289
     18,   6.86558342,   6.77653074
     19,   6.90692854,   6.92356396
     20,   6.94827366,   7.07059669
** ... 425 like lines cut
*Element, type=CAX3
1,  17,   2,  18
2, 154, 144, 140
31, 421, 244, 419
32, 359, 327, 179
33, 138,   2,  17
34, 398, 382, 160
35, 407, 366, 386
36, 400, 392, 163
37, 365, 435, 350
38, 397, 184, 338
*Element, type=CAX4R
 3,   6, 151,  30,   1
 4,   8,   9, 139, 153
 5,  10,  11, 140, 144
 6,  16,  17,  18,  19
 7,  15,  16,  19,  20
 8,  20, 141,  14,  15
 9,  14, 141, 142,  13
10, 149, 143, 147, 146
11, 154, 149, 148, 145
12,  27, 139, 145,  26
13, 152, 153,  28,  29
14,   7, 152, 151,   6
15,   3,  25, 146,  24
16, 150, 142,  21,  22
17,  21, 142, 141,  20
18, 149, 154, 140, 143
19, 153, 139,  27,  28
20,   9,  10, 144, 139
21,  12, 143, 140,  11
22, 145, 148,  25,  26
** ... 356 like lines cut
*Nset, nset=_PickedSet2, internal, generate
   1,  445,    1
*Elset, elset=_PickedSet2, internal, generate
   1,  386,    1
** Section: cornea
*Solid Section, elset=_PickedSet2, material=cornea
,
*End Instance
**  
*Instance, name=crystalline-1, part=crystalline
6.69970745548198e-11, 17.3711169817534,           0.
*Node
      1,   3.07247043,  -10.8885136
      2,   2.48821044,  -10.6387339
      3,   1.57575858,  -10.3646784
      4,  0.950560749,  -10.2511988
      5,   3.90104127,  -11.3587742
      6,           0.,  -10.1870975
      7,           0.,  -17.5870972
      8,  0.642668128,  -17.5462818
      9,   1.58412051,  -17.3337898
     10,   2.18201518,  -17.0946026
     11,   3.01026106,  -16.5991306
     12,   3.50375557,  -16.1854248
     13,   4.13619614,  -15.4563818
     14,   4.47607613,  -14.9094181
     15,   4.84963989,  -14.0195103
     16,   4.95190287,  -13.4619894
     17,   4.94430399,  -13.0836725
     18,   4.81973553,  -12.5307074
     19,   4.56638908,  -12.0236549
     20,   4.33294106,  -11.7258568
** ... 418 like lines cut
*Element, type=CAX3
1, 412, 106, 407
2, 285, 248, 247
3, 287, 355, 357
4, 386, 425, 381
*Element, type=CAX4R
  5, 112, 114, 123, 124
  6,  25,  92,  89,  24
  7,  88,  95, 114, 112
  8, 112, 107,  87,  88
  9, 126, 138, 139, 127
 10,  29,  30, 227, 403
 11,   5,  85,  84,  72
 12,  71,  83,  74,  20
 13,  92,  87, 107, 113
 14, 171, 173,  37,  38
 15,  24,  89,  96,   2
 16, 127, 128, 108, 111
 17,  94,  21,  22,  90
 18,  70,  80,  78,  19
 19, 136,  63,  64,  75
 20,  82,  17,  66,  81
 21,  85,  94, 116, 105
 22, 115, 109,  86,  91
 23, 140, 124, 123, 159
 24, 125, 126, 113, 107
** ... 379 like lines cut
*Nset, nset=_PickedSet2, internal, generate
   1,  438,    1
*Elset, elset=_PickedSet2, internal, generate
   1,  403,    1
** Section: crystalline
*Solid Section, elset=_PickedSet2, material=crystalline
,
*End Instance
**  
*Instance, name=front-sclera-1, part=front-sclera
-3.7668534957902e-11, 3.32161228045504,           0.
*Node
      1,    9.9515543,   1.12480748
      2,   9.14303398,  0.481538087
      3,   10.4872065,  -4.65523481
      4,   11.3366365,  -4.65523481
      5,   7.15500021,   4.48414898
      6,   6.82423782,   3.30788565
      7,   9.54729462,  0.803172827
      8,   9.39388275, 0.00700477976
      9,   9.62012291, -0.479741693
     10,   9.82116222, -0.977426291
     11,   9.99647427,  -1.48474526
     12,   10.1456003,  -2.00036955
     13,   10.2681484,   -2.5229485
     14,   10.3637981,  -3.05111337
     15,   10.4322987,  -3.58348012
     16,   10.4734707,  -4.11865473
     17,   10.9119215,  -4.65523481
     18,   11.3386889,  -4.05391979
     19,   11.3088694,  -3.45334172
     20,    11.247261,  -2.85518789
** ... 31 like lines cut
*Element, type=CAX4R
 1,  1,  7, 38, 26
 2,  7,  2,  8, 38
 3, 26, 38, 39, 25
 4, 38,  8,  9, 39
 5, 25, 39, 40, 24
 6, 39,  9, 10, 40
 7, 24, 40, 41, 23
 8, 40, 10, 11, 41
 9, 23, 41, 42, 22
10, 41, 11, 12, 42
11, 22, 42, 43, 21
12, 42, 12, 13, 43
13, 21, 43, 44, 20
14, 43, 13, 14, 44
15, 20, 44, 45, 19
16, 44, 14, 15, 45
17, 19, 45, 46, 18
18, 45, 15, 16, 46
19, 18, 46, 17,  4
20, 46, 16,  3, 17
** ... 12 like lines cut
*Nset, nset=_PickedSet2, internal, generate
  1,  51,   1
*Elset, elset=_PickedSet2, internal, generate
  1,  32,   1
** Section: front-sclera
*Solid Section, elset=_PickedSet2, material=front-sclera
,
*End Instance
**  
*Instance, name=vitreous-1, part=vitreous
6.69970745548198e-11, 3.36074095755341,           0.
*Node
      1,    8.5965929,  -10.7010336
      2,           0.,  -3.57672119
      3,           0.,  -15.1815701
      4,   9.41823578, -0.0815185532
      5,    7.0936842, -0.708963871
      6,   5.92180204,   1.32872796
      7,   4.84963989, -0.00913426653
      8,   9.14303398,  0.442409426
      9,    7.8802104,  -10.1073418
     10,    7.1638279,  -9.51364899
     11,   6.44744492,  -8.91995621
     12,   5.73106241,  -8.32626343
     13,   5.01467943,  -7.73257017
     14,   4.29829645,  -7.13887787
     15,   3.58191395,  -6.54518509
     16,   2.86553121,  -5.95149231
     17,   2.14914823,  -5.35779953
     18,    1.4327656,  -4.76410675
     19,  0.716382802,  -4.17041397
     20,           0.,  -4.46940184
** ... 204 like lines cut
*Element, type=CAX3
1, 135, 123, 121
2, 138, 128, 129
91, 200, 196, 195
92, 218, 205, 198
93, 196, 203, 194
192, 224, 221, 223
*Element, type=CAX4R
 3,  41, 131, 106,  40
 4, 112, 111,  88,  90
 5,  96, 115, 132, 116
 6,  68,  25,  26,  72
 7, 130,  91,  16,  17
 8, 109,  87,  70, 133
 9,  19,   2,  20,  67
10,  67,  20,  21,  73
11,  73,  21,  22,  69
12, 108,  67,  73,  87
13,  69,  22,  23,  70
14,  25,  68,  71,  24
15,  74,  27,  28,  75
16,  11,  12,  88,  92
17,  84,  39,  40, 106
18,  85, 115, 106, 131
19,  70,  23,  24,  71
20,  72,  26,  27,  74
21, 135, 129, 125, 126
22,  13,  14,  89,  90
** ... 175 like lines cut
*Nset, nset=_PickedSet2, internal, generate
   1,  224,    1
*Elset, elset=_PickedSet2, internal, generate
   1,  201,    1
** Section: vitreous
*Solid Section, elset=_PickedSet2, material=vitreous
,
*End Instance
**  
*Instance, name=touch-len-1, part=touch-len
          0.,      2.56402,           0.
*Node
      1,           6.,           8.
      2,   5.75207853,   8.18007278
      3,   5.49875593,   8.35246563
      4,   5.24027061,   8.51701641
      5,   4.97686529,   8.67356968
      6,   4.70878696,   8.82197952
      7,   4.43628788,    8.9621067
      8,   4.15962315,   9.09381866
      9,   3.87905288,   9.21699238
     10,   3.59484053,   9.33151245
     11,   3.30725288,   9.43727112
     12,   3.01656008,   9.53416824
     13,    2.7230351,   9.62211418
     14,   2.42695332,   9.70102596
     15,   2.12859273,   9.77082825
     16,   1.82823372,   9.83145809
     17,   1.52615809,   9.88285637
     18,   1.22264957,    9.9249754
     19,  0.917993069,   9.95777512
     20,   0.61247462,   9.98122597
** ... 68 like lines cut
*Element, type=CAX4R
 1,  1,  2, 24, 23
 2,  2,  3, 25, 24
 3,  3,  4, 26, 25
 4,  4,  5, 27, 26
 5,  5,  6, 28, 27
 6,  6,  7, 29, 28
 7,  7,  8, 30, 29
 8,  8,  9, 31, 30
 9,  9, 10, 32, 31
10, 10, 11, 33, 32
11, 11, 12, 34, 33
12, 12, 13, 35, 34
13, 13, 14, 36, 35
14, 14, 15, 37, 36
15, 15, 16, 38, 37
16, 16, 17, 39, 38
17, 17, 18, 40, 39
18, 18, 19, 41, 40
19, 19, 20, 42, 41
20, 20, 21, 43, 42
** ... 43 like lines cut
*Nset, nset=_PickedSet2, internal, generate
  1,  88,   1
*Elset, elset=_PickedSet2, internal, generate
  1,  63,   1
** Section: touch-len
*Solid Section, elset=_PickedSet2, material=touch-len
,
*End Instance
**  
*Node
      1,           0.,   12.0640202,           0.
*Nset, nset=_PickedSet31, internal, instance=back-sclera-1, generate
 30,  58,   1
*Nset, nset=_PickedSet31, internal, instance=front-sclera-1
  1,  4,  5, 18, 19, 20, 21, 22, 23, 24, 25, 26, 27, 28, 29, 30
 31,
*Elset, elset=_PickedSet31, internal, instance=back-sclera-1, generate
  1,  28,   1
*Elset, elset=_PickedSet31, internal, instance=front-sclera-1
  1,  3,  5,  7,  9, 11, 13, 15, 17, 19, 22, 24, 26, 28, 30, 32
*Nset, nset=_PickedSet74, internal
 1,
*Nset, nset=_PickedSet75, internal
 1,
*Nset, nset=_PickedSet76, internal, instance=back-sclera-1
 29, 58
*Nset, nset=_PickedSet76, internal, instance=cornea-1
  4,  5, 79, 80, 81, 82, 83
*Nset, nset=_PickedSet76, internal, instance=crystalline-1
  6,  7, 29, 30, 31, 32, 33, 34, 35, 36, 37, 38, 39, 40, 41, 42
 43, 44, 45, 46, 47, 48, 49, 50
*Nset, nset=_PickedSet76, internal, instance=vitreous-1
  2,  3, 20, 21, 22, 23, 24, 25, 26, 27, 28, 29, 30, 31
*Nset, nset=_PickedSet76, internal, instance=touch-len-1, generate
 22,  88,  22
*Elset, elset=_PickedSet76, internal, instance=back-sclera-1
 28,
*Elset, elset=_PickedSet76, internal, instance=cornea-1
  82, 102, 212, 213, 214, 234
*Elset, elset=_PickedSet76, internal, instance=crystalline-1
  10,  14,  27,  28,  36,  38,  40,  42,  44,  45,  46,  49,  50,  85, 126, 128
 143, 160, 169, 173, 176, 178, 180
*Elset, elset=_PickedSet76, internal, instance=vitreous-1
  6,  9, 10, 11, 13, 14, 15, 19, 20, 24, 26, 27, 41
*Elset, elset=_PickedSet76, internal, instance=touch-len-1, generate
 21,  63,  21
*Elset, elset=__PickedSurf23_S2, internal, instance=cornea-1
  1, 28
*Elset, elset=__PickedSurf23_S3, internal, instance=cornea-1
  6,  7, 16, 23
*Elset, elset=__PickedSurf23_S3, internal, instance=front-sclera-1
 31, 32
*Elset, elset=__PickedSurf23_S4, internal, instance=cornea-1
 15, 17
*Surface, type=ELEMENT, name=_PickedSurf23, internal
__PickedSurf23_S2, S2
__PickedSurf23_S3, S3
__PickedSurf23_S4, S4
*Elset, elset=__PickedSurf24_S2, internal, instance=cornea-1
  1, 28
*Elset, elset=__PickedSurf24_S3, internal, instance=cornea-1
  6,  7, 16, 23
*Elset, elset=__PickedSurf24_S4, internal, instance=cornea-1
 15, 17
*Surface, type=ELEMENT, name=_PickedSurf24, internal
__PickedSurf24_S2, S2
__PickedSurf24_S3, S3
__PickedSurf24_S4, S4
*Elset, elset=__PickedSurf25_S4, internal, instance=back-sclera-1
 1,
*Surface, type=ELEMENT, name=_PickedSurf25, internal
__PickedSurf25_S4, S4
*Elset, elset=__PickedSurf26_S3, internal, instance=front-sclera-1
 19, 20
*Surface, type=ELEMENT, name=_PickedSurf26, internal
__PickedSurf26_S3, S3
*Elset, elset=__PickedSurf73_S1, internal, instance=touch-len-1, generate
  1,  21,   1
*Elset, elset=__PickedSurf73_S2, internal, instance=touch-len-1, generate
 21,  63,  21
*Elset, elset=__PickedSurf73_S3, internal, instance=touch-len-1, generate
 43,  63,   1
*Elset, elset=__PickedSurf73_S4, internal, instance=touch-len-1, generate
  1,  43,  21
*Surface, type=ELEMENT, name=_PickedSurf73, internal
__PickedSurf73_S1, S1
__PickedSurf73_S2, S2
__PickedSurf73_S4, S4
__PickedSurf73_S3, S3
*Elset, elset=__PickedSurf109_S1, internal, instance=cornea-1
  33,  41,  74,  76, 103, 107, 109, 110, 114, 115, 135, 138, 140, 162, 167, 168
 214, 215, 216, 221, 222, 223, 224, 225, 228, 246, 250
*Elset, elset=__PickedSurf109_S1, internal, instance=crystalline-1
 62,
*Elset, elset=__PickedSurf109_S1, internal, instance=vitreous-1
 107, 126, 194
*Elset, elset=__PickedSurf109_S3, internal, instance=cornea-1
  39,  40,  75,  86, 104, 165, 226, 227, 252
*Elset, elset=__PickedSurf109_S2, internal, instance=cornea-1
  58,  59,  62, 122, 127, 132, 139, 150, 217
*Elset, elset=__PickedSurf109_S2, internal, instance=crystalline-1
  17,  19,  20,  25,  28,  61,  64,  69,  70,  72,  76,  84,  86,  89,  92, 397
*Elset, elset=__PickedSurf109_S2, internal, instance=vitreous-1
 200, 201
*Elset, elset=__PickedSurf109_S4, internal, instance=cornea-1
  60, 117, 121, 126, 131, 152, 188, 218, 219, 220, 242
*Elset, elset=__PickedSurf109_S4, internal, instance=crystalline-1
  6, 11, 12, 15, 18, 26, 63, 65, 67, 74, 83, 88
*Elset, elset=__PickedSurf109_S4, internal, instance=front-sclera-1, generate
 21,  31,   2
*Elset, elset=__PickedSurf109_S4, internal, instance=vitreous-1
 196,
*Surface, type=ELEMENT, name=_PickedSurf109, internal
__PickedSurf109_S1, S1
__PickedSurf109_S3, S3
__PickedSurf109_S2, S2
__PickedSurf109_S4, S4
** Constraint: cornea-front-sclera
*Tie, name=cornea-front-sclera, adjust=yes
_PickedSurf24, _PickedSurf23
** Constraint: front-back-sclera
*Tie, name=front-back-sclera, adjust=yes
_PickedSurf26, _PickedSurf25
** Constraint: touch-len
*Coupling, constraint name=touch-len, ref node=_PickedSet74, surface=_PickedSurf73
*Kinematic
*End Assembly
*Amplitude, name=len-press
             0.,              0.,            0.01,              1.
** 
** MATERIALS
** 
*Material, name=back-sclera
*Density
 1.4e-09,
*Elastic
 8.2, 0.49
*Material, name=cornea
*Density
 1.4e-09,
*Elastic
 0.25, 0.49
*Material, name=crystalline
*Density
 1e-09,
*Elastic
 0.16, 0.49
*Material, name=front-sclera
*Density
 1.4e-09,
*Elastic
 4.3, 0.49
*Material, name=touch-len
*Density
 1.2e-09,
*Elastic
 0.5, 0.49
*Material, name=vitreous
*Density
 1e-09,
*Elastic
 0.001, 0.49
** 
** INTERACTION PROPERTIES
** 
*Surface Interaction, name=global
*Friction
0.,
*Surface Behavior, pressure-overclosure=HARD
** ----------------------------------------------------------------
** 
** STEP: Press
** 
*Step, name=Press, nlgeom=YES
*Dynamic, Explicit
, 0.01
*Bulk Viscosity
0.06, 1.2
** 
** BOUNDARY CONDITIONS
** 
** Name: axis-fixed Type: ¶ÔłĆ/·´¶ÔłĆ/ÍęČ«ąĚ¶¨
*Boundary
_PickedSet76, XSYMM
** Name: len-press Type: Î»ŇĆ/×Ş˝Ç
*Boundary, amplitude=len-press
_PickedSet75, 1, 1
_PickedSet75, 2, 2, -0.5
_PickedSet75, 6, 6
** Name: sclera-fixed Type: ¶ÔłĆ/·´¶ÔłĆ/ÍęČ«ąĚ¶¨
*Boundary
_PickedSet31, ENCASTRE
** 
** LOADS
** 
** Name: aqueous   Type: Pressure
*Dsload
_PickedSurf109, P, 0.0024
** 
** INTERACTIONS
** 
** Interaction: global
*Contact, op=NEW
*Contact Inclusions, ALL EXTERIOR
** 
** OUTPUT REQUESTS
** 
*Restart, write, number interval=1, time marks=NO
** 
** FIELD OUTPUT: F-Output-1
** 
*Output, field, number interval=5, time marks=YES
*Node Output
UT, 
** 
** HISTORY OUTPUT: H-Output-1
** 
*Output, history, variable=PRESELECT
*End Step
** ----------------------------------------------------------------
** 
** STEP: Resume
** 
*Step, name=Resume, nlgeom=YES
*Dynamic, Explicit, element by element
, 0.1
*Bulk Viscosity
0.06, 1.2
** 
** OUTPUT REQUESTS
** 
*Restart, write, number interval=1, time marks=NO
** 
** FIELD OUTPUT: F-Output-1
** 
*Output, field, number interval=5, time marks=YES
*Node Output
UT, 
** 
** HISTORY OUTPUT: H-Output-1
** 
*Output, history, variable=PRESELECT
*End Step
