1

   Abaqus 2025                                  Date 08-5ÔÂ-2026   Time 14:01:43
   For use by Supplied by Team-SolidSQUAD under license from Dassault Systemes or its subsidiary.



                         The Abaqus Software is a product of:

                           Dassault Systemes Americas Corp.
                           1301 Atwood Avenue, Suite 101W
                              Johnston, RI 02919, USA
 


                   The Abaqus Software is available only under license
                   from Dassault Systemes or its subsidiary and may be
                   used or reproduced only in accordance with the terms
                   of such license.
 
                          On machine WIN-DPN366VMB32 
                          you are authorized to run
                          Abaqus/Explicit until 31-Dec-2055

                          Your site id is:  


 
                    For assistance or any other information you may
                    obtain contact information for your local office
                    from the world wide web at:

                      https://www.3ds.com/products-services/simulia/services-support/

 
                * * * * * * * * * * * * * * * * * * * * * * * * * * * * * * 
                *                                                         * 
                *                   *****************                     * 
                *                   *  N O T I C E  *                     * 
                *                   *****************                     * 
                *                                                         * 
                *                                                         * 
                *                       Abaqus 2025                       * 
                *                                                         * 
                *       BUILD ID: 2024_09_20-21.00.46 RELr427 198590      * 
                *                                                         * 
                *                                                         * 
                *  Please make sure you are using                         * 
                *  release Abaqus 2025 manuals                            * 
                *  plus the notes accompanying this release.              * 
                *                                                         * 
                *                                                         * 
                *                                                         * 
                *                                                         * 
                * * * * * * * * * * * * * * * * * * * * * * * * * * * * * * 


 



     PROCESSING PART, INSTANCE, AND ASSEMBLY INFORMATION
   *******************************************************


     END PROCESSING PART, INSTANCE, AND ASSEMBLY INFORMATION
   ***********************************************************




     OPTIONS BEING PROCESSED
   ***************************


  *Element, type=CAX4R
  *Elset, elset=ASSEMBLY_BACK-SCLERA-1__PICKEDSET2
  *Element, type=CAX4R
  *Elset, elset=ASSEMBLY_CORNEA-1__PICKEDSET2
  *Element, type=CAX3
  *Element, type=CAX4R
  *Elset, elset=ASSEMBLY_CRYSTALLINE-1__PICKEDSET2
  *Element, type=CAX4R
  *Elset, elset=ASSEMBLY_FRONT-SCLERA-1__PICKEDSET2
  *Element, type=CAX3
  *Element, type=CAX4R
  *Element, type=CAX3
  *Element, type=CAX4R
  *Elset, elset=ASSEMBLY_VITREOUS-1__PICKEDSET2
  *Element, type=CAX4R
  *Elset, elset=ASSEMBLY_TOUCH-LEN-1__PICKEDSET2
  *Elset, elset=ASSEMBLY__PICKEDSET31
  *Elset, elset=ASSEMBLY__PICKEDSET76
  *Elset, elset=ASSEMBLY___PICKEDSURF23_S3
  *Elset, elset=ASSEMBLY___PICKEDSURF23_S4
  *Elset, elset=ASSEMBLY___PICKEDSURF24_S4
  *Elset, elset=ASSEMBLY___PICKEDSURF25_S4
  *Elset, elset=ASSEMBLY___PICKEDSURF26_S1
  *Elset, elset=ASSEMBLY___PICKEDSURF30_S1
  *Elset, elset=ASSEMBLY___PICKEDSURF30_S2
  *Elset, elset=ASSEMBLY___PICKEDSURF30_S3
  *Elset, elset=ASSEMBLY___PICKEDSURF30_S4
  *Elset, elset=ASSEMBLY___PICKEDSURF73_S1
  *Elset, elset=ASSEMBLY___PICKEDSURF73_S2
  *Elset, elset=ASSEMBLY___PICKEDSURF73_S3
  *Elset, elset=ASSEMBLY___PICKEDSURF73_S4
  *heading
  *material, name=BACK-SCLERA
  *density
  *elastic
  *material, name=CORNEA
  *density
  *elastic
  *material, name=CRYSTALLINE
  *density
  *elastic
  *material, name=FRONT-SCLERA
  *density
  *elastic
  *material, name=TOUCH-LEN
  *density
  *elastic
  *material, name=VITREOUS
  *density
  *elastic
  *solidsection, elset=ASSEMBLY_BACK-SCLERA-1__PICKEDSET2, material=BACK-SCLERA
  *solidsection, elset=ASSEMBLY_CORNEA-1__PICKEDSET2, material=CORNEA
  *solidsection, elset=ASSEMBLY_CRYSTALLINE-1__PICKEDSET2, material=CRYSTALLINE
  *solidsection, elset=ASSEMBLY_FRONT-SCLERA-1__PICKEDSET2, material=FRONT-SCLERA
  *solidsection, elset=ASSEMBLY_VITREOUS-1__PICKEDSET2, material=VITREOUS
  *solidsection, elset=ASSEMBLY_TOUCH-LEN-1__PICKEDSET2, material=TOUCH-LEN
  *solidsection, elset=ASSEMBLY_BACK-SCLERA-1__PICKEDSET2, material=BACK-SCLERA
  *solidsection, elset=ASSEMBLY_CORNEA-1__PICKEDSET2, material=CORNEA
  *solidsection, elset=ASSEMBLY_CRYSTALLINE-1__PICKEDSET2, material=CRYSTALLINE
  *solidsection, elset=ASSEMBLY_FRONT-SCLERA-1__PICKEDSET2, material=FRONT-SCLERA
  *solidsection, elset=ASSEMBLY_VITREOUS-1__PICKEDSET2, material=VITREOUS
  *solidsection, elset=ASSEMBLY_TOUCH-LEN-1__PICKEDSET2, material=TOUCH-LEN
  *surface, type=ELEMENT, name=ASSEMBLY__PICKEDSURF23
  *surface, type=ELEMENT, name=ASSEMBLY__PICKEDSURF24
  *surface, type=ELEMENT, name=ASSEMBLY__PICKEDSURF25
  *surface, type=ELEMENT, name=ASSEMBLY__PICKEDSURF26
  *surface, type=ELEMENT, name=ASSEMBLY__PICKEDSURF30
  *surface, type=ELEMENT, name=ASSEMBLY__PICKEDSURF73
  *surface, type=ELEMENT, name=ASSEMBLY__PICKEDSURF23
  *surface, type=ELEMENT, name=ASSEMBLY__PICKEDSURF24
  *surface, type=ELEMENT, name=ASSEMBLY__PICKEDSURF25
  *surface, type=ELEMENT, name=ASSEMBLY__PICKEDSURF26
  *surface, type=ELEMENT, name=ASSEMBLY__PICKEDSURF30
  *surface, type=ELEMENT, name=ASSEMBLY__PICKEDSURF73
  *coupling, constraintname=ASSEMBLY_TOUCH-LEN, refnode=ASSEMBLY__PICKEDSET74, surfa
  *tie, name=ASSEMBLY_CORNEA-FRONT-SCLERA, adjust=YES
  *tie, name=ASSEMBLY_FRONT-BACK-SCLERA, adjust=YES
  *coupling, constraintname=ASSEMBLY_TOUCH-LEN, refnode=ASSEMBLY__PICKEDSET74, surfa
  *coupling, constraintname=ASSEMBLY_TOUCH-LEN, refnode=ASSEMBLY__PICKEDSET74, surfa
  *kinematic
  *coupling, constraintname=ASSEMBLY_TOUCH-LEN, refnode=ASSEMBLY__PICKEDSET74, surfa
  *coupling, constraintname=ASSEMBLY_TOUCH-LEN, refnode=ASSEMBLY__PICKEDSET74, surfa
  *surfaceinteraction, name=GLOBAL
  *friction
  *boundary
  *boundary, amplitude=LEN-PRESS
  *boundary
  *solidsection, elset=ASSEMBLY_BACK-SCLERA-1__PICKEDSET2, material=BACK-SCLERA
  *solidsection, elset=ASSEMBLY_CORNEA-1__PICKEDSET2, material=CORNEA
  *solidsection, elset=ASSEMBLY_CRYSTALLINE-1__PICKEDSET2, material=CRYSTALLINE
  *solidsection, elset=ASSEMBLY_FRONT-SCLERA-1__PICKEDSET2, material=FRONT-SCLERA
  *solidsection, elset=ASSEMBLY_VITREOUS-1__PICKEDSET2, material=VITREOUS
  *solidsection, elset=ASSEMBLY_TOUCH-LEN-1__PICKEDSET2, material=TOUCH-LEN
  *tie, name=ASSEMBLY_CORNEA-FRONT-SCLERA, adjust=YES
  *tie, name=ASSEMBLY_FRONT-BACK-SCLERA, adjust=YES
  *tie, name=ASSEMBLY_CORNEA-FRONT-SCLERA, adjust=YES
  *tie, name=ASSEMBLY_FRONT-BACK-SCLERA, adjust=YES

 ***WARNING: Total of 8 secondary nodes for tie definition 
             ASSEMBLY_CORNEA-FRONT-SCLERA with main surface 
             ASSEMBLY__PICKEDSURF23 and secondary surface 
             ASSEMBLY__PICKEDSURF24 are common between the main and secondary 
             surfaces. The adjustment of these secondary nodes may cause 
             undesirable mesh distortion. Internal nodesets starting with the 
             name TIE_SLV_MST_COMNOD have been created to identify all such 
             nodes.

 ***NOTE:  Total of 8 secondary nodes for tie definition 
          ASSEMBLY_CORNEA-FRONT-SCLERA with main surface ASSEMBLY__PICKEDSURF23 
          and secondary surface ASSEMBLY__PICKEDSURF24 were tied.

 ***NOTE:  Total of 3 secondary nodes for tie definition 
          ASSEMBLY_FRONT-BACK-SCLERA with main surface ASSEMBLY__PICKEDSURF25 
          and secondary surface ASSEMBLY__PICKEDSURF26 were tied.
  *solidsection, elset=ASSEMBLY_BACK-SCLERA-1__PICKEDSET2, material=BACK-SCLERA
  *solidsection, elset=ASSEMBLY_CORNEA-1__PICKEDSET2, material=CORNEA
  *solidsection, elset=ASSEMBLY_CRYSTALLINE-1__PICKEDSET2, material=CRYSTALLINE
  *solidsection, elset=ASSEMBLY_FRONT-SCLERA-1__PICKEDSET2, material=FRONT-SCLERA
  *solidsection, elset=ASSEMBLY_VITREOUS-1__PICKEDSET2, material=VITREOUS
  *solidsection, elset=ASSEMBLY_TOUCH-LEN-1__PICKEDSET2, material=TOUCH-LEN
  *friction

 ***WARNING: THE RADIAL CURRENT COORDINATE OF NODE NUMBER 54 INSTANCE CORNEA-1 
             RESIDING ON AXYSYMMETRIC ELEMENT 53 INSTANCE CORNEA-1 HAS A 
             NEGATIVE VALUE -7.74598E-11. THIS VALUE HAS BEEN ASSUMED SMALL 
             ENOUGH TO BE TAKEN AS ZERO. THE SMALL NEGATIVE RADIUS CAN APPEAR 
             DUE TO NODAL COORDINATE ADJUSTMENTS (*TIE, FOR EXAMPLE).

 ***WARNING: THE RADIAL CURRENT COORDINATE OF NODE NUMBER 108 INSTANCE CORNEA-1 
             RESIDING ON AXYSYMMETRIC ELEMENT 53 INSTANCE CORNEA-1 HAS A 
             NEGATIVE VALUE -7.74598E-11. THIS VALUE HAS BEEN ASSUMED SMALL 
             ENOUGH TO BE TAKEN AS ZERO. THE SMALL NEGATIVE RADIUS CAN APPEAR 
             DUE TO NODAL COORDINATE ADJUSTMENTS (*TIE, FOR EXAMPLE).

 ***WARNING: THE RADIAL CURRENT COORDINATE OF NODE NUMBER 108 INSTANCE CORNEA-1 
             RESIDING ON AXYSYMMETRIC ELEMENT 106 INSTANCE CORNEA-1 HAS A 
             NEGATIVE VALUE -7.74598E-11. THIS VALUE HAS BEEN ASSUMED SMALL 
             ENOUGH TO BE TAKEN AS ZERO. THE SMALL NEGATIVE RADIUS CAN APPEAR 
             DUE TO NODAL COORDINATE ADJUSTMENTS (*TIE, FOR EXAMPLE).

 ***WARNING: THE RADIAL CURRENT COORDINATE OF NODE NUMBER 162 INSTANCE CORNEA-1 
             RESIDING ON AXYSYMMETRIC ELEMENT 106 INSTANCE CORNEA-1 HAS A 
             NEGATIVE VALUE -7.74598E-11. THIS VALUE HAS BEEN ASSUMED SMALL 
             ENOUGH TO BE TAKEN AS ZERO. THE SMALL NEGATIVE RADIUS CAN APPEAR 
             DUE TO NODAL COORDINATE ADJUSTMENTS (*TIE, FOR EXAMPLE).

 ***WARNING: THE RADIAL CURRENT COORDINATE OF NODE NUMBER 162 INSTANCE CORNEA-1 
             RESIDING ON AXYSYMMETRIC ELEMENT 159 INSTANCE CORNEA-1 HAS A 
             NEGATIVE VALUE -7.74598E-11. THIS VALUE HAS BEEN ASSUMED SMALL 
             ENOUGH TO BE TAKEN AS ZERO. THE SMALL NEGATIVE RADIUS CAN APPEAR 
             DUE TO NODAL COORDINATE ADJUSTMENTS (*TIE, FOR EXAMPLE).

 ***WARNING: THE RADIAL CURRENT COORDINATE OF NODE NUMBER 216 INSTANCE CORNEA-1 
             RESIDING ON AXYSYMMETRIC ELEMENT 159 INSTANCE CORNEA-1 HAS A 
             NEGATIVE VALUE -7.74598E-11. THIS VALUE HAS BEEN ASSUMED SMALL 
             ENOUGH TO BE TAKEN AS ZERO. THE SMALL NEGATIVE RADIUS CAN APPEAR 
             DUE TO NODAL COORDINATE ADJUSTMENTS (*TIE, FOR EXAMPLE).

 ***WARNING: THE RADIAL CURRENT COORDINATE OF NODE NUMBER 216 INSTANCE CORNEA-1 
             RESIDING ON AXYSYMMETRIC ELEMENT 212 INSTANCE CORNEA-1 HAS A 
             NEGATIVE VALUE -7.74598E-11. THIS VALUE HAS BEEN ASSUMED SMALL 
             ENOUGH TO BE TAKEN AS ZERO. THE SMALL NEGATIVE RADIUS CAN APPEAR 
             DUE TO NODAL COORDINATE ADJUSTMENTS (*TIE, FOR EXAMPLE).

 ***WARNING: THE RADIAL CURRENT COORDINATE OF NODE NUMBER 270 INSTANCE CORNEA-1 
             RESIDING ON AXYSYMMETRIC ELEMENT 212 INSTANCE CORNEA-1 HAS A 
             NEGATIVE VALUE -7.74598E-11. THIS VALUE HAS BEEN ASSUMED SMALL 
             ENOUGH TO BE TAKEN AS ZERO. THE SMALL NEGATIVE RADIUS CAN APPEAR 
             DUE TO NODAL COORDINATE ADJUSTMENTS (*TIE, FOR EXAMPLE).

 ***WARNING: THE RADIAL CURRENT COORDINATE OF NODE NUMBER 270 INSTANCE CORNEA-1 
             RESIDING ON AXYSYMMETRIC ELEMENT 265 INSTANCE CORNEA-1 HAS A 
             NEGATIVE VALUE -7.74598E-11. THIS VALUE HAS BEEN ASSUMED SMALL 
             ENOUGH TO BE TAKEN AS ZERO. THE SMALL NEGATIVE RADIUS CAN APPEAR 
             DUE TO NODAL COORDINATE ADJUSTMENTS (*TIE, FOR EXAMPLE).

 ***WARNING: THE RADIAL CURRENT COORDINATE OF NODE NUMBER 324 INSTANCE CORNEA-1 
             RESIDING ON AXYSYMMETRIC ELEMENT 265 INSTANCE CORNEA-1 HAS A 
             NEGATIVE VALUE -7.74598E-11. THIS VALUE HAS BEEN ASSUMED SMALL 
             ENOUGH TO BE TAKEN AS ZERO. THE SMALL NEGATIVE RADIUS CAN APPEAR 
             DUE TO NODAL COORDINATE ADJUSTMENTS (*TIE, FOR EXAMPLE).

 ***WARNING: THE RADIAL CURRENT COORDINATE OF NODE NUMBER 324 INSTANCE CORNEA-1 
             RESIDING ON AXYSYMMETRIC ELEMENT 318 INSTANCE CORNEA-1 HAS A 
             NEGATIVE VALUE -7.74598E-11. THIS VALUE HAS BEEN ASSUMED SMALL 
             ENOUGH TO BE TAKEN AS ZERO. THE SMALL NEGATIVE RADIUS CAN APPEAR 
             DUE TO NODAL COORDINATE ADJUSTMENTS (*TIE, FOR EXAMPLE).

 ***WARNING: THE RADIAL CURRENT COORDINATE OF NODE NUMBER 378 INSTANCE CORNEA-1 
             RESIDING ON AXYSYMMETRIC ELEMENT 318 INSTANCE CORNEA-1 HAS A 
             NEGATIVE VALUE -7.74598E-11. THIS VALUE HAS BEEN ASSUMED SMALL 
             ENOUGH TO BE TAKEN AS ZERO. THE SMALL NEGATIVE RADIUS CAN APPEAR 
             DUE TO NODAL COORDINATE ADJUSTMENTS (*TIE, FOR EXAMPLE).

 ***WARNING: THE RADIAL CURRENT COORDINATE OF NODE NUMBER 378 INSTANCE CORNEA-1 
             RESIDING ON AXYSYMMETRIC ELEMENT 371 INSTANCE CORNEA-1 HAS A 
             NEGATIVE VALUE -7.74598E-11. THIS VALUE HAS BEEN ASSUMED SMALL 
             ENOUGH TO BE TAKEN AS ZERO. THE SMALL NEGATIVE RADIUS CAN APPEAR 
             DUE TO NODAL COORDINATE ADJUSTMENTS (*TIE, FOR EXAMPLE).

 ***WARNING: THE RADIAL CURRENT COORDINATE OF NODE NUMBER 432 INSTANCE CORNEA-1 
             RESIDING ON AXYSYMMETRIC ELEMENT 371 INSTANCE CORNEA-1 HAS A 
             NEGATIVE VALUE -7.74598E-11. THIS VALUE HAS BEEN ASSUMED SMALL 
             ENOUGH TO BE TAKEN AS ZERO. THE SMALL NEGATIVE RADIUS CAN APPEAR 
             DUE TO NODAL COORDINATE ADJUSTMENTS (*TIE, FOR EXAMPLE).
  
                               E L E M E N T   Q U A L I T Y  C H E C K S        
  
  
 ***NOTES: DISTORTED ISOPARAMETRIC ELEMENTS: ANGLE BETWEEN ISOPARAMETRIC LINES 
           IS LESS THAN 45 DEGREES OR GREATER THAN 135 DEGREES.
  
           TETRAHEDRAL QUALITY MEASURE: VOLUME OF TETRAHEDRON DIVIDED BY THE 
           VOLUME OF EQUILATERAL TETRAHEDRON WITH SAME CIRCUMSPHERE RADIUS; 
           0 FOR DEGENERATE TETRAHEDRON AND 1 FOR EQUILATERIAL TETRAHEDRON. IT 
           IS RECOMMENDED THAT THE TETRAHEDRAL QUALITY MEASURE BE GREATER THAN 
           0.02, THE MIN INTERIOR (DIHEDRAL) ANGLE BE GREATER THAN 10 DEGREES, 
           AND THE MAX INTERIOR (DIHEDRAL) ANGLE BE LESS THAN 160 DEGREES. 
  
           MODIFIED TETRAHEDRAL QUALITY MEASURE: ANGLES BETWEEN THE TWO LINE 
           SEGMENTS ON EACH EDGE; THE EDGES OF MODIFIED TETRAHEDRAL SHOULD BE 
           AS STRAIGHT AS POSSIBLE. IT IS RECOMMENDED THAT THE ANGLE BETWEEN 
           THE TWO LINE SEGMENTS ON EACH EDGE IS BETWEEN 160 AND 180 DEGREES. 
  
           TRIANGULAR QUALITY MEASURE: AREA OF TRIANGLE DIVIDED BY THE AREA OF 
           EQUILATERAL TRIANGLE WITH SAME CIRCUMCIRCLE RADIUS; 0 FOR DEGENERATE 
           TRIANGLE AND 1 FOR EQUILATERAL TRIANGLE. IT IS RECOMMENDED THAT THE
           TRIANGULAR QUALITY MEASURE BE GREATER THAN 0.01, THE MIN INTERIOR 
           ANGLE BE GREATER THAN 10 DEGREES, AND THE MAX INTERIOR ANGLE BE LESS 
           THAN 160 DEGREES. 
  
           NODAL ADJUSTMENTS ARISING FROM CONTACT INTERACTIONS AND/OR TIE 
           CONSTRAINTS CAN CAUSE SEVERE ELEMENT DISTORTION. IT MAY BE NECESSARY 
           TO REMESH IN ORDER TO REDUCE THE AMOUNT OF ADJUSTMENT. 

 ***WARNING: 11 elements are distorted. Either the isoparametric angles are out 
             of the suggested limits or the triangular or tetrahedral quality 
             measure is bad. The elements have been identified in element set 
             WarnElemDistorted.

 ***WARNING: The aspect ratio for 2 elements exceeds 100 to 1. The elements 
             have been identified in element set WarnElemAspectRatio.

 ***WARNING: 8 nodes on reactivated axisymmetric elements have negative radial 
             current coordinate values. These values are assumed small enough 
             to be taken as zero. The nodes have been identified in node set 
             WarnNodeRadCurCoord.
  
 --------------------------------------------------------------------------------
 Distorted isoparametric elements
  
       Element         Min/max angle   Adjusted nodes 
 -------------------- ---------------- -------------- 
         CORNEA-1.319          44.9975       NO       
        VITREOUS-1.11          41.5765       NO       
  
 --------------------------------------------------------------------------------
 Distorted triangular elements
  
       Element        Quality measure     Min angle        Max angle     Adjusted nodes 
 -------------------- ---------------- ---------------- ---------------- -------------- 
         VITREOUS-1.1       0.00555088         0.210202          97.4425       NO       
         VITREOUS-1.2       0.00035642          0.25816          166.769       NO       
         VITREOUS-1.3       0.00358101         0.504225          148.809       NO       
         VITREOUS-1.4      7.08134E-06        0.0719634          176.494       NO       
         VITREOUS-1.5        0.0015593         0.405038          157.555       NO       
         VITREOUS-1.6      5.21333E-05         0.142657          173.231       NO       
         VITREOUS-1.7      0.000778059         0.344466          162.973       NO       
         VITREOUS-1.8       0.00270327         0.506794          153.287       NO       
         VITREOUS-1.9       0.00564957         0.621463          144.121       NO       
  
 --------------------------------------------------------------------------------
 Elements with large aspect ratio
  
       Element        Adjusted nodes 
 -------------------- -------------- 
        VITREOUS-1.10       NO       
        VITREOUS-1.14       NO       
  
  
  *output, field
  *output, history, variable=PRESELECT
  *output, field
  *output, history, variable=PRESELECT
  *step, name=Press, nlgeom=YES
  *step, name=Resume, nlgeom=YES
  *step, name=Press, nlgeom=YES
  *dynamic, explicit
  *boundary
  *boundary, amplitude=LEN-PRESS
  *boundary
  *dsload
  *output, field
  *nodeoutput
  *contactoutput
  *output, history, variable=PRESELECT
  *endstep
  *step, name=Resume, nlgeom=YES
  *dynamic, explicit
  *output, field
  *nodeoutput
  *contactoutput
  *output, history, variable=PRESELECT
  *endstep
  *surface, type=ELEMENT, name=ASSEMBLY__PICKEDSURF23
  *surface, type=ELEMENT, name=ASSEMBLY__PICKEDSURF24
  *surface, type=ELEMENT, name=ASSEMBLY__PICKEDSURF25
  *surface, type=ELEMENT, name=ASSEMBLY__PICKEDSURF26
  *surface, type=ELEMENT, name=ASSEMBLY__PICKEDSURF30
  *surface, type=ELEMENT, name=ASSEMBLY__PICKEDSURF73
  *tie, name=ASSEMBLY_CORNEA-FRONT-SCLERA, adjust=YES
  *tie, name=ASSEMBLY_FRONT-BACK-SCLERA, adjust=YES
  *surfaceinteraction, name=GLOBAL
  *friction
  *surfacebehavior, pressure-overclosure=HARD
  *step, name=Press, nlgeom=YES
  *dynamic, explicit
  *boundary

 ***WARNING: THE OPTION *BOUNDARY,TYPE=DISPLACEMENT HAS BEEN USED; CHECK STATUS 
             FILE BETWEEN STEPS FOR WARNINGS ON ANY JUMPS PRESCRIBED ACROSS THE 
             STEPS IN DISPLACEMENT VALUES OF TRANSLATIONAL DOF. FOR ROTATIONAL 
             DOF MAKE SURE THAT THERE ARE NO SUCH JUMPS. ALL JUMPS IN 
             DISPLACEMENTS ACROSS STEPS ARE IGNORED
  *boundary, amplitude=LEN-PRESS
  *boundary
  *contact, op=NEW
  *contactinclusions, allexterior
  *endstep
  *step, name=Resume, nlgeom=YES
  *dynamic, explicit
  *endstep

     - (RAMP) OR (STEP) - INDICATE USE OF DEFAULT AMPLITUDES ASSOCIATED WITH THE STEP

     - (RAMP) OR (STEP) - INDICATE USE OF DEFAULT AMPLITUDES ASSOCIATED WITH THE STEP



                            P R O B L E M   S I Z E


          NUMBER OF ELEMENTS IS                                  1251
          NUMBER OF NODES IS                                     1448
          NUMBER OF NODES DEFINED BY THE USER                    1448
          TOTAL NUMBER OF VARIABLES IN THE MODEL                 2945
          (DEGREES OF FREEDOM PLUS MAX NO. OF ANY LAGRANGE MULTIPLIER
           VARIABLES. INCLUDE *PRINT,SOLVE=YES TO GET THE ACTUAL NUMBER.)



                              END OF USER INPUT PROCESSING



     JOB TIME SUMMARY
       USER TIME (SEC)      =     0.20    
       SYSTEM TIME (SEC)    =     0.30    
       TOTAL CPU TIME (SEC) =     0.50    
       WALLCLOCK TIME (SEC) =            0




     ***NOTE:        7 SECONDARY NODES INVOLVED IN *TIE CONSTRAINT
               HAVE BEEN ADJUSTED. FOR MORE DETAILED INFORMATION ON
               NODAL COORDINATE ADJUSTMENTS, USE THE *PREPRINT,MODEL=YES
               OPTION.




     ***WARNING: THE FOLLOWING SECONDARY NODES INVOLVED IN *TIE,
          ARE WITHIN COMBINED MAIN AND SECONDARY THICKNESS AWAY FROM 
          THEIR PROJECTION POINTS ON THE MAIN SURFACE. THE 
          COORDINATES OF THESE NODES HAVE THEREFORE NOT BEEN 
          ADJUSTED.
       438       330       276        60
