*Heading
** Job name: Job-1 Model name: Model-1
** Generated by: Abaqus/CAE 2025
*Preprint, echo=NO, model=NO, history=NO, contact=NO
**
** PARTS
**
*Part, name=back-sclera
*End Part
**  
*Part, name=cornea
*End Part
**  
*Part, name=crystalline
*End Part
**  
*Part, name=front-sclera
*End Part
**  
*Part, name=touch-len
*End Part
**  
*Part, name=vitreous
*End Part
**  
**
** ASSEMBLY
**
*Assembly, name=Assembly
**  
*Instance, name=back-sclera-1, part=back-sclera
*Node
      1,   10.4872065,   -1.9078151
      2,   10.4707088,  -2.49583745
      3,   10.4212656,  -3.08200979
      4,   10.3390331,   -3.6644876
      5,   10.2242708,  -4.24143839
      6,   10.0773392,   -4.8110466
      7,   9.89869976,  -5.37152004
      8,   9.68891621,  -5.92109537
      9,   9.44864655,  -6.45804358
     10,   9.17864895,  -6.98067522
     11,   8.87977219,   -7.4873457
     12,   8.55295563,  -7.97646093
     13,   8.19922829,   -8.4464817
     14,   7.81970358,  -8.89592934
     15,   7.41557503,  -9.32339001
     16,   6.98811436,  -9.72751904
     17,   6.53866673,  -10.1070433
     18,   6.06864548,  -10.4607706
     19,   5.57953072,  -10.7875872
     20,   5.07286024,  -11.0864639
** ... 38 like lines cut
*Element, type=CAX4R
 1,  1,  2, 31, 30
 2,  2,  3, 32, 31
 3,  3,  4, 33, 32
 4,  4,  5, 34, 33
 5,  5,  6, 35, 34
 6,  6,  7, 36, 35
 7,  7,  8, 37, 36
 8,  8,  9, 38, 37
 9,  9, 10, 39, 38
10, 10, 11, 40, 39
11, 11, 12, 41, 40
12, 12, 13, 42, 41
13, 13, 14, 43, 42
14, 14, 15, 44, 43
15, 15, 16, 45, 44
16, 16, 17, 46, 45
17, 17, 18, 47, 46
18, 18, 19, 48, 47
19, 19, 20, 49, 48
20, 20, 21, 50, 49
** ... 8 like lines cut
*Nset, nset=_PickedSet2, internal, generate
  1,  58,   1
*Elset, elset=_PickedSet2, internal, generate
  1,  28,   1
** Section: back-sclera
*Solid Section, elset=_PickedSet2, material=back-sclera
,
*End Instance
**  
*Instance, name=cornea-1, part=cornea
-7.74598163388873e-11, -0.574192770157571,           0.
*Node
      1,   7.15500021,   7.80576134
      2,   7.06380367,   7.93551922
      3,    6.9702549,     8.063591
      4,   6.87438393,   8.18993378
      5,   6.77622318,   8.31450653
      6,   6.67580557,    8.4372673
      7,   6.57316399,   8.55817413
      8,   6.46833324,   8.67718792
      9,   6.36134768,   8.79426956
     10,   6.25224352,   8.90937805
     11,   6.14105654,   9.02247715
     12,   6.02782393,   9.13352776
     13,   5.91258383,   9.24249268
     14,   5.79537392,   9.34933758
     15,   5.67623377,   9.45402527
     16,   5.55520296,   9.55652046
     17,   5.43232203,   9.65679073
     18,   5.30763149,    9.7548008
     19,   5.18117285,   9.85051918
     20,   5.05298805,   9.94391441
** ... 412 like lines cut
*Element, type=CAX4R
  1,   1,   2,  56,  55
  2,   2,   3,  57,  56
  3,   3,   4,  58,  57
  4,   4,   5,  59,  58
  5,   5,   6,  60,  59
  6,   6,   7,  61,  60
  7,   7,   8,  62,  61
  8,   8,   9,  63,  62
  9,   9,  10,  64,  63
 10,  10,  11,  65,  64
 11,  11,  12,  66,  65
 12,  12,  13,  67,  66
 13,  13,  14,  68,  67
 14,  14,  15,  69,  68
 15,  15,  16,  70,  69
 16,  16,  17,  71,  70
 17,  17,  18,  72,  71
 18,  18,  19,  73,  72
 19,  19,  20,  74,  73
 20,  20,  21,  75,  74
** ... 351 like lines cut
*Nset, nset=_PickedSet2, internal, generate
   1,  432,    1
*Elset, elset=_PickedSet2, internal, generate
   1,  371,    1
** Section: cornea
*Solid Section, elset=_PickedSet2, material=cornea
,
*End Instance
**  
*Instance, name=crystalline-1, part=crystalline
3.94430452610506e-31, 16.7969242116,           0.
*Node
      1,   3.07247043,  -10.8885136
      2,   2.48821044,  -10.6387339
      3,   1.57575858,  -10.3646784
      4,  0.950560749,  -10.2511988
      5,   3.90104127,  -11.3587742
      6,           0.,  -10.1870975
      7,           0.,  -17.5870972
      8,  0.642668128,  -17.5462818
      9,   1.58412051,  -17.3337898
     10,   2.18201518,  -17.0946026
     11,   3.01026106,  -16.5991306
     12,   3.50375557,  -16.1854248
     13,   4.13619614,  -15.4563818
     14,   4.47607613,  -14.9094181
     15,   4.84963989,  -14.0195103
     16,   4.95190287,  -13.4619894
     17,   4.94430399,  -13.0836725
     18,   4.81973553,  -12.5307074
     19,   4.56638908,  -12.0236549
     20,   4.33294106,  -11.7258568
** ... 418 like lines cut
*Element, type=CAX3
1, 412, 106, 407
2, 285, 248, 247
3, 287, 355, 357
4, 386, 425, 381
*Element, type=CAX4R
  5, 112, 114, 123, 124
  6,  25,  92,  89,  24
  7,  88,  95, 114, 112
  8, 112, 107,  87,  88
  9, 126, 138, 139, 127
 10,  29,  30, 227, 403
 11,   5,  85,  84,  72
 12,  71,  83,  74,  20
 13,  92,  87, 107, 113
 14, 171, 173,  37,  38
 15,  24,  89,  96,   2
 16, 127, 128, 108, 111
 17,  94,  21,  22,  90
 18,  70,  80,  78,  19
 19, 136,  63,  64,  75
 20,  82,  17,  66,  81
 21,  85,  94, 116, 105
 22, 115, 109,  86,  91
 23, 140, 124, 123, 159
 24, 125, 126, 113, 107
** ... 379 like lines cut
*Nset, nset=_PickedSet2, internal, generate
   1,  438,    1
*Elset, elset=_PickedSet2, internal, generate
   1,  403,    1
** Section: crystalline
*Solid Section, elset=_PickedSet2, material=crystalline
,
*End Instance
**  
*Instance, name=front-sclera-1, part=front-sclera
-1.09331210751407e-10, 2.74741951030323,           0.
*Node
      1,   10.4872065,  -4.65523481
      2,   10.9119215,  -4.65523481
      3,   11.3366365,  -4.65523481
      4,   10.4735298,  -4.11980677
      5,   10.9054852,  -4.06217718
      6,   11.3374414,   -4.0045476
      7,   10.4325342,  -3.58577538
      8,   10.8667316,  -3.47033048
      9,   11.3009291,  -3.35488534
     10,   10.3643265,  -3.05453372
     11,   10.7957735,  -2.88145995
     12,   11.2272196,  -2.70838618
     13,   10.2690849,  -2.52746701
     14,   10.6928215,  -2.29732251
     15,   11.1165571,  -2.06717801
     16,   10.1470585,  -2.00595045
     17,   10.5581818,  -1.71966076
     18,    10.969305,  -1.43337131
     19,   9.99856472,  -1.49134398
     20,   10.3922567,   -1.1501981
** ... 31 like lines cut
*Element, type=CAX4R
 1,  1,  2,  5,  4
 2,  2,  3,  6,  5
 3,  4,  5,  8,  7
 4,  5,  6,  9,  8
 5,  7,  8, 11, 10
 6,  8,  9, 12, 11
 7, 10, 11, 14, 13
 8, 11, 12, 15, 14
 9, 13, 14, 17, 16
10, 14, 15, 18, 17
11, 16, 17, 20, 19
12, 17, 18, 21, 20
13, 19, 20, 23, 22
14, 20, 21, 24, 23
15, 22, 23, 26, 25
16, 23, 24, 27, 26
17, 25, 26, 29, 28
18, 26, 27, 30, 29
19, 28, 29, 32, 31
20, 29, 30, 33, 32
** ... 12 like lines cut
*Nset, nset=_PickedSet2, internal, generate
  1,  51,   1
*Elset, elset=_PickedSet2, internal, generate
  1,  32,   1
** Section: front-sclera
*Solid Section, elset=_PickedSet2, material=front-sclera
,
*End Instance
**  
*Instance, name=vitreous-1, part=vitreous
3.94430452610506e-31, 2.7865481874,           0.
*Node
      1,   4.84963989, -0.00913426653
      2,   9.14867973,   0.43234843
      3,   9.14303398,  0.442409426
      4,           0.,  -3.57672119
      5,           0.,  -15.1815701
      6,   5.07349396,  0.489001006
      7,   5.40608835,  0.922164321
      8,   5.82952929,   1.26705158
      9,   6.32103586,   1.50510776
     10,   6.85416508,   1.62352562
     11,    7.4002347,   1.61593425
     12,   7.92986584,   1.48274207
     13,   8.41456509,   1.23111475
     14,    8.8282547,   0.87458992
     15,   8.82221985,  0.884040058
     16,   8.40819454,   1.23976874
     17,   7.92328501,   1.49041295
     18,   7.39364004,   1.62245691
     19,   6.84781981,   1.62878013
     20,   6.31525755,   1.50904155
** ... 360 like lines cut
*Element, type=CAX3
 1,  6, 23,  1
 2, 13, 15, 16
 3, 11, 17, 18
 4, 14,  3, 15
 5, 12, 16, 17
 6, 14,  2,  3
 7, 13, 14, 15
 8, 12, 13, 16
 9, 11, 12, 17
15, 364, 211, 366
16, 377, 279, 278
17, 275, 242, 238
18, 274, 379, 276
19, 293, 308, 291
20, 301, 264, 265
21, 380, 273, 282
22, 374, 312, 356
23, 376, 331, 323
*Element, type=CAX4R
10, 21, 22,  7,  8
11, 18, 19, 10, 11
12, 19, 20,  9, 10
13, 20, 21,  8,  9
14, 22, 23,  6,  7
 24,  80, 363, 135, 138
 25, 362, 183, 365,  82
 26,   7, 362,  82,   8
 27,  78,   6,   1, 134
 28, 243, 291, 279, 237
 29, 106,  73,  74, 118
 30, 116, 114, 150, 155
 31,  69, 109, 107,  68
 32,  81,  12,  11, 360
 33, 120, 107, 148, 144
 34, 122,  66,  67, 120
 35, 239, 190, 189, 240
 36,  35,  36,  91,  92
 37, 335, 338, 342, 339
 38,  34,  35,  92,  93
** ... 316 like lines cut
*Nset, nset=_PickedSet2, internal, generate
   1,  380,    1
*Elset, elset=_PickedSet2, internal, generate
   1,  354,    1
** Section: vitreous
*Solid Section, elset=_PickedSet2, material=vitreous
,
*End Instance
**  
*Instance, name=touch-len-1, part=touch-len
          0.,     2.009827,           0.
*Node
      1,           6.,           8.
      2,   5.75207853,   8.18007278
      3,   5.49875593,   8.35246563
      4,   5.24027061,   8.51701641
      5,   4.97686529,   8.67356968
      6,   4.70878696,   8.82197952
      7,   4.43628788,    8.9621067
      8,   4.15962315,   9.09381866
      9,   3.87905288,   9.21699238
     10,   3.59484053,   9.33151245
     11,   3.30725288,   9.43727112
     12,   3.01656008,   9.53416824
     13,    2.7230351,   9.62211418
     14,   2.42695332,   9.70102596
     15,   2.12859273,   9.77082825
     16,   1.82823372,   9.83145809
     17,   1.52615809,   9.88285637
     18,   1.22264957,    9.9249754
     19,  0.917993069,   9.95777512
     20,   0.61247462,   9.98122597
** ... 68 like lines cut
*Element, type=CAX4R
 1,  1,  2, 24, 23
 2,  2,  3, 25, 24
 3,  3,  4, 26, 25
 4,  4,  5, 27, 26
 5,  5,  6, 28, 27
 6,  6,  7, 29, 28
 7,  7,  8, 30, 29
 8,  8,  9, 31, 30
 9,  9, 10, 32, 31
10, 10, 11, 33, 32
11, 11, 12, 34, 33
12, 12, 13, 35, 34
13, 13, 14, 36, 35
14, 14, 15, 37, 36
15, 15, 16, 38, 37
16, 16, 17, 39, 38
17, 17, 18, 40, 39
18, 18, 19, 41, 40
19, 19, 20, 42, 41
20, 20, 21, 43, 42
** ... 43 like lines cut
*Nset, nset=_PickedSet2, internal, generate
  1,  88,   1
*Elset, elset=_PickedSet2, internal, generate
  1,  63,   1
** Section: touch-len
*Solid Section, elset=_PickedSet2, material=touch-len
,
*End Instance
**  
*Node
      1,           0.,   11.5098267,           0.
*Nset, nset=_PickedSet31, internal, instance=back-sclera-1, generate
 30,  58,   1
*Nset, nset=_PickedSet31, internal, instance=front-sclera-1, generate
  3,  51,   3
*Elset, elset=_PickedSet31, internal, instance=back-sclera-1, generate
  1,  28,   1
*Elset, elset=_PickedSet31, internal, instance=front-sclera-1, generate
  2,  32,   2
*Nset, nset=_PickedSet74, internal
 1,
*Nset, nset=_PickedSet75, internal
 1,
*Nset, nset=_PickedSet76, internal, instance=back-sclera-1
 29, 58
*Nset, nset=_PickedSet76, internal, instance=cornea-1, generate
  54,  432,   54
*Nset, nset=_PickedSet76, internal, instance=crystalline-1
  6,  7, 29, 30, 31, 32, 33, 34, 35, 36, 37, 38, 39, 40, 41, 42
 43, 44, 45, 46, 47, 48, 49, 50
*Nset, nset=_PickedSet76, internal, instance=vitreous-1
  4,  5, 32, 33, 34, 35, 36, 37, 38, 39, 40, 41, 42, 43, 44, 45
 46, 47
*Nset, nset=_PickedSet76, internal, instance=touch-len-1, generate
 22,  88,  22
*Elset, elset=_PickedSet76, internal, instance=back-sclera-1
 28,
*Elset, elset=_PickedSet76, internal, instance=cornea-1, generate
  53,  371,   53
*Elset, elset=_PickedSet76, internal, instance=crystalline-1
  10,  14,  27,  28,  36,  38,  40,  42,  44,  45,  46,  49,  50,  85, 126, 128
 143, 160, 169, 173, 176, 178, 180
*Elset, elset=_PickedSet76, internal, instance=vitreous-1
  36,  38,  41,  42,  43,  50,  53,  55,  57,  59,  60,  62,  65,  66,  91,  93
 183,
*Elset, elset=_PickedSet76, internal, instance=touch-len-1, generate
 21,  63,  21
*Elset, elset=__PickedSurf23_S4, internal, instance=cornea-1, generate
   1,  319,   53
*Elset, elset=__PickedSurf23_S3, internal, instance=front-sclera-1
 31, 32
*Surface, type=ELEMENT, name=_PickedSurf23, internal
__PickedSurf23_S4, S4
__PickedSurf23_S3, S3
*Elset, elset=__PickedSurf24_S4, internal, instance=cornea-1, generate
   1,  319,   53
*Surface, type=ELEMENT, name=_PickedSurf24, internal
__PickedSurf24_S4, S4
*Elset, elset=__PickedSurf25_S4, internal, instance=back-sclera-1
 1,
*Surface, type=ELEMENT, name=_PickedSurf25, internal
__PickedSurf25_S4, S4
*Elset, elset=__PickedSurf26_S1, internal, instance=front-sclera-1
 1, 2
*Surface, type=ELEMENT, name=_PickedSurf26, internal
__PickedSurf26_S1, S1
*Elset, elset=__PickedSurf30_S3, internal, instance=cornea-1, generate
 319,  371,    1
*Elset, elset=__PickedSurf30_S4, internal, instance=crystalline-1
  6, 11, 12, 15, 18, 26, 63, 65, 67, 74, 83, 88
*Elset, elset=__PickedSurf30_S4, internal, instance=front-sclera-1, generate
 21,  31,   2
*Elset, elset=__PickedSurf30_S2, internal, instance=crystalline-1
  17,  19,  20,  25,  28,  61,  64,  69,  70,  72,  76,  84,  86,  89,  92, 397
*Elset, elset=__PickedSurf30_S2, internal, instance=vitreous-1, generate
 1,  5,  1
*Elset, elset=__PickedSurf30_S1, internal, instance=crystalline-1
 62,
*Elset, elset=__PickedSurf30_S1, internal, instance=vitreous-1, generate
 10,  14,   1
*Surface, type=ELEMENT, name=_PickedSurf30, internal
__PickedSurf30_S3, S3
__PickedSurf30_S4, S4
__PickedSurf30_S2, S2
__PickedSurf30_S1, S1
*Elset, elset=__PickedSurf73_S1, internal, instance=touch-len-1, generate
  1,  21,   1
*Elset, elset=__PickedSurf73_S2, internal, instance=touch-len-1, generate
 21,  63,  21
*Elset, elset=__PickedSurf73_S3, internal, instance=touch-len-1, generate
 43,  63,   1
*Elset, elset=__PickedSurf73_S4, internal, instance=touch-len-1, generate
  1,  43,  21
*Surface, type=ELEMENT, name=_PickedSurf73, internal
__PickedSurf73_S1, S1
__PickedSurf73_S2, S2
__PickedSurf73_S4, S4
__PickedSurf73_S3, S3
** Constraint: cornea-front-sclera
*Tie, name=cornea-front-sclera, adjust=yes
_PickedSurf24, _PickedSurf23
** Constraint: front-back-sclera
*Tie, name=front-back-sclera, adjust=yes
_PickedSurf26, _PickedSurf25
** Constraint: touch-len
*Coupling, constraint name=touch-len, ref node=_PickedSet74, surface=_PickedSurf73
*Kinematic
*End Assembly
*Amplitude, name=len-press
             0.,              0.,            0.01,              1.
** 
** MATERIALS
** 
*Material, name=back-sclera
*Density
 1e-09,
*Elastic
 8.2, 0.49
*Material, name=cornea
*Density
 1e-09,
*Elastic
 0.25, 0.49
*Material, name=crystalline
*Density
 1e-09,
*Elastic
 0.16, 0.49
*Material, name=front-sclera
*Density
 1e-09,
*Elastic
 4.3, 0.49
*Material, name=touch-len
*Density
 1e-09,
*Elastic
 0.5, 0.49
*Material, name=vitreous
*Density
 1e-09,
*Elastic
 0.42, 0.49
** 
** INTERACTION PROPERTIES
** 
*Surface Interaction, name=global
*Friction
0.,
*Surface Behavior, pressure-overclosure=HARD
** ----------------------------------------------------------------
** 
** STEP: Press
** 
*Step, name=Press, nlgeom=YES
*Dynamic, Explicit
, 0.01
*Bulk Viscosity
0.06, 1.2
** 
** BOUNDARY CONDITIONS
** 
** Name: axis-fixed Type: ¶ÔłĆ/·´¶ÔłĆ/ÍęČ«ąĚ¶¨
*Boundary
_PickedSet76, XSYMM
** Name: len-press Type: Î»ŇĆ/×Ş˝Ç
*Boundary, amplitude=len-press
_PickedSet75, 1, 1
_PickedSet75, 2, 2, -0.06
_PickedSet75, 6, 6
** Name: sclera-fixed Type: ¶ÔłĆ/·´¶ÔłĆ/ÍęČ«ąĚ¶¨
*Boundary
_PickedSet31, ENCASTRE
** 
** LOADS
** 
** Name: aqueous   Type: Pressure
*Dsload
_PickedSurf30, P, 0.0024
** 
** INTERACTIONS
** 
** Interaction: global
*Contact, op=NEW
*Contact Inclusions, ALL EXTERIOR
** 
** OUTPUT REQUESTS
** 
*Restart, write, number interval=1, time marks=NO
** 
** FIELD OUTPUT: F-Output-1
** 
*Output, field
*Node Output
UT, 
*Contact Output
CDISP, CSTRESS
** 
** HISTORY OUTPUT: H-Output-1
** 
*Output, history, variable=PRESELECT
*End Step
** ----------------------------------------------------------------
** 
** STEP: Resume
** 
*Step, name=Resume, nlgeom=YES
*Dynamic, Explicit
, 0.001
*Bulk Viscosity
0.06, 1.2
** 
** OUTPUT REQUESTS
** 
*Restart, write, number interval=1, time marks=NO
** 
** FIELD OUTPUT: F-Output-1
** 
*Output, field
*Node Output
UT, 
*Contact Output
CDISP, CSTRESS
** 
** HISTORY OUTPUT: H-Output-1
** 
*Output, history, variable=PRESELECT
*End Step
